Version 4
SHEET 1 2040 680
WIRE -304 -720 -464 -720
WIRE 816 -720 -304 -720
WIRE 1216 -720 816 -720
WIRE 1504 -720 1216 -720
WIRE -464 -560 -464 -720
WIRE 1504 -464 1504 -720
WIRE 1408 -448 1376 -448
WIRE 1456 -448 1408 -448
WIRE 1504 -448 1504 -464
WIRE 1216 -400 1216 -720
WIRE 1376 -368 1376 -448
WIRE 1376 -368 1312 -368
WIRE 816 -336 816 -720
WIRE 336 -320 80 -320
WIRE 784 -320 336 -320
WIRE 1504 -320 1504 -368
WIRE 1584 -320 1504 -320
WIRE 1744 -320 1584 -320
WIRE 1856 -320 1824 -320
WIRE 1920 -320 1856 -320
WIRE -464 -304 -464 -480
WIRE -464 -304 -560 -304
WIRE 912 -304 848 -304
WIRE 1120 -304 912 -304
WIRE 560 -288 400 -288
WIRE 784 -288 560 -288
WIRE -560 -272 -560 -304
WIRE 1376 -240 1312 -240
WIRE 1504 -240 1504 -320
WIRE 1984 -240 1984 -320
WIRE -464 -192 -464 -304
WIRE 1376 -160 1376 -240
WIRE 1408 -160 1376 -160
WIRE 1456 -160 1408 -160
WIRE 80 -144 80 -320
WIRE 1984 -64 1984 -160
WIRE 80 -16 80 -64
WIRE -464 128 -464 -112
WIRE -304 128 -464 128
WIRE 816 128 816 -272
WIRE 816 128 -304 128
WIRE 1216 128 1216 -208
WIRE 1216 128 816 128
WIRE 1504 128 1504 -144
WIRE 1504 128 1216 128
FLAG -560 -272 0
FLAG 1584 -320 vo
FLAG 1984 -64 0
FLAG -304 -720 vcc
FLAG -304 128 vee
FLAG 80 -16 0
FLAG 912 -304 vpwm
FLAG 1408 -448 vgp
FLAG 1408 -160 vgn
FLAG 400 -208 0
FLAG 560 -288 vsin
FLAG 336 -320 vtr
FLAG 1856 -256 0
SYMBOL res 1968 -256 R0
SYMATTR InstName R1
SYMATTR Value 8
SYMBOL voltage -464 -576 R0
WINDOW 123 0 0 Left 2
WINDOW 39 0 0 Left 2
SYMATTR InstName V1
SYMATTR Value 12
SYMBOL voltage -464 -208 R0
WINDOW 123 0 0 Left 2
WINDOW 39 0 0 Left 2
SYMATTR InstName V2
SYMATTR Value 12
SYMBOL voltage 80 -160 R0
WINDOW 123 24 44 Left 2
WINDOW 39 0 0 Left 2
SYMATTR InstName V5
SYMATTR Value PULSE(-10 10 5u 25u 25u 0u 50u)
SYMBOL deadtime 1232 -304 R0
SYMATTR InstName X1
SYMBOL pmos 1456 -368 M180
SYMATTR InstName M1
SYMATTR Value RSR015P06
SYMBOL nmos 1456 -240 R0
SYMATTR InstName M2
SYMATTR Value QS6K1
SYMBOL voltage 400 -304 R0
WINDOW 123 0 0 Left 0
WINDOW 39 0 0 Left 0
SYMATTR InstName V4
SYMATTR Value SINE(0 7.5 1k 0 0 0 0)
SYMBOL OpAmps\\UniversalOpAmp2 816 -304 R0
SYMATTR InstName U1
SYMBOL ind 1728 -304 R270
WINDOW 0 32 56 VTop 2
WINDOW 3 5 56 VBottom 2
SYMATTR InstName L1
SYMATTR Value 20µ
SYMBOL cap 1840 -320 R0
SYMATTR InstName C1
SYMATTR Value 0.33µ
SYMBOL polcap 1920 -304 R270
WINDOW 0 32 32 VTop 2
WINDOW 3 0 32 VBottom 2
SYMATTR InstName C2
SYMATTR Value 470µ
TEXT -864 -408 Left 2 !.tran 0 4000u
TEXT -968 -552 Left 2 !.meas tran PS avg -(10*I(V1)+10*I(V2))
TEXT -968 -512 Left 2 !.meas tran PL avg V(vo)*I(R1)
TEXT -968 -472 Left 2 !.meas tran Efficiency param PL/PS
TEXT 912 -440 Left 2 ;Dead time control circuit
